!-Generator IDFEditor 1.53
!-Option SortedOrder

!-NOTE: All comments with '!-' are ignored by the IDFEditor and are generated automatically.
!-      Use '!' comments if they need to be retained when using the IDFEditor.


!-   ===========  ALL OBJECTS IN CLASS: VERSION ===========

Version,
    23.2;                    !- Version Identifier


!-   ===========  ALL OBJECTS IN CLASS: SIMULATIONCONTROL ===========

SimulationControl,
    No,                      !- Do Zone Sizing Calculation
    No,                      !- Do System Sizing Calculation
    Yes,                     !- Do Plant Sizing Calculation
    No,                      !- Run Simulation for Sizing Periods
    Yes,                     !- Run Simulation for Weather File Run Periods
    No,                      !- Do HVAC Sizing Simulation for Sizing Periods
    ;                        !- Maximum Number of HVAC Sizing Simulation Passes


!-   ===========  ALL OBJECTS IN CLASS: BUILDING ===========

Building,
    Jttestensgatan 3_19,     !- Name
    0,                       !- North Axis {deg}
    City,                    !- Terrain
    ,                        !- Loads Convergence Tolerance Value {W}
    ,                        !- Temperature Convergence Tolerance Value {deltaC}
    FullExterior,            !- Solar Distribution
    ,                        !- Maximum Number of Warmup Days
    ;                        !- Minimum Number of Warmup Days


!-   ===========  ALL OBJECTS IN CLASS: SHADOWCALCULATION ===========

ShadowCalculation,
    PolygonClipping,         !- Shading Calculation Method
    Periodic,                !- Shading Calculation Update Frequency Method
    30,                      !- Shading Calculation Update Frequency
    15000,                   !- Maximum Figures in Shadow Overlap Calculations
    SutherlandHodgman,       !- Polygon Clipping Algorithm
    512,                     !- Pixel Counting Resolution
    SimpleSkyDiffuseModeling,!- Sky Diffuse Modeling Algorithm
    No,                      !- Output External Shading Calculation Results
    No,                      !- Disable Self-Shading Within Shading Zone Groups
    No;                      !- Disable Self-Shading From Shading Zone Groups to Other Zones


!-   ===========  ALL OBJECTS IN CLASS: HEATBALANCEALGORITHM ===========

HeatBalanceAlgorithm,
    ConductionTransferFunction,  !- Algorithm
    200;                     !- Surface Temperature Upper Limit {C}


!-   ===========  ALL OBJECTS IN CLASS: TIMESTEP ===========

Timestep,
    1;                       !- Number of Timesteps per Hour


!-   ===========  ALL OBJECTS IN CLASS: SITE:LOCATION ===========

Site:Location,
    Site 1,                  !- Name
    0,                       !- Latitude {deg}
    0,                       !- Longitude {deg}
    0,                       !- Time Zone {hr}
    0;                       !- Elevation {m}


!-   ===========  ALL OBJECTS IN CLASS: SIZINGPERIOD:DESIGNDAY ===========

SizingPeriod:DesignDay,
    Gothenburg-Landvetter.AP Cooling Design Day 0.4% Condns DB=>MWB,  !- Name
    7,                       !- Month
    21,                      !- Day of Month
    SummerDesignDay,         !- Day Type
    26.5,                    !- Maximum Dry-Bulb Temperature {C}
    7.9,                     !- Daily Dry-Bulb Temperature Range {deltaC}
    DefaultMultipliers,      !- Dry-Bulb Temperature Range Modifier Type
    ,                        !- Dry-Bulb Temperature Range Modifier Day Schedule Name
    Wetbulb,                 !- Humidity Condition Type
    18.2,                    !- Wetbulb or DewPoint at Maximum Dry-Bulb {C}
    ,                        !- Humidity Condition Day Schedule Name
    ,                        !- Humidity Ratio at Maximum Dry-Bulb {kgWater/kgDryAir}
    ,                        !- Enthalpy at Maximum Dry-Bulb {J/kg}
    ,                        !- Daily Wet-Bulb Temperature Range {deltaC}
    99414,                   !- Barometric Pressure {Pa}
    4.4,                     !- Wind Speed {m/s}
    119,                     !- Wind Direction {deg}
    No,                      !- Rain Indicator
    No,                      !- Snow Indicator
    No,                      !- Daylight Saving Time Indicator
    ASHRAEClearSky,          !- Solar Model Indicator
    ,                        !- Beam Solar Day Schedule Name
    ,                        !- Diffuse Solar Day Schedule Name
    ,                        !- ASHRAE Clear Sky Optical Depth for Beam Irradiance (taub) {dimensionless}
    ,                        !- ASHRAE Clear Sky Optical Depth for Diffuse Irradiance (taud) {dimensionless}
    1,                       !- Sky Clearness
    ,                        !- Maximum Number Warmup Days
    FullResetAtBeginEnvironment;  !- Begin Environment Reset Mode

SizingPeriod:DesignDay,
    Gothenburg-Landvetter.AP Heating Design Day 99.6% Condns DB,  !- Name
    1,                       !- Month
    21,                      !- Day of Month
    WinterDesignDay,         !- Day Type
    -12.6,                   !- Maximum Dry-Bulb Temperature {C}
    0,                       !- Daily Dry-Bulb Temperature Range {deltaC}
    DefaultMultipliers,      !- Dry-Bulb Temperature Range Modifier Type
    ,                        !- Dry-Bulb Temperature Range Modifier Day Schedule Name
    Wetbulb,                 !- Humidity Condition Type
    -12.6,                   !- Wetbulb or DewPoint at Maximum Dry-Bulb {C}
    ,                        !- Humidity Condition Day Schedule Name
    ,                        !- Humidity Ratio at Maximum Dry-Bulb {kgWater/kgDryAir}
    ,                        !- Enthalpy at Maximum Dry-Bulb {J/kg}
    ,                        !- Daily Wet-Bulb Temperature Range {deltaC}
    99414.3554795,           !- Barometric Pressure {Pa}
    3.2,                     !- Wind Speed {m/s}
    30,                      !- Wind Direction {deg}
    No,                      !- Rain Indicator
    No,                      !- Snow Indicator
    No,                      !- Daylight Saving Time Indicator
    ASHRAEClearSky,          !- Solar Model Indicator
    ,                        !- Beam Solar Day Schedule Name
    ,                        !- Diffuse Solar Day Schedule Name
    ,                        !- ASHRAE Clear Sky Optical Depth for Beam Irradiance (taub) {dimensionless}
    ,                        !- ASHRAE Clear Sky Optical Depth for Diffuse Irradiance (taud) {dimensionless}
    0,                       !- Sky Clearness
    ,                        !- Maximum Number Warmup Days
    FullResetAtBeginEnvironment;  !- Begin Environment Reset Mode


!-   ===========  ALL OBJECTS IN CLASS: RUNPERIOD ===========

RunPeriod,
    Run Period 1,            !- Name
    1,                       !- Begin Month
    1,                       !- Begin Day of Month
    2006,                    !- Begin Year
    12,                      !- End Month
    31,                      !- End Day of Month
    2006,                    !- End Year
    Sunday,                  !- Day of Week for Start Day
    No,                      !- Use Weather File Holidays and Special Days
    No,                      !- Use Weather File Daylight Saving Period
    No,                      !- Apply Weekend Holiday Rule
    Yes,                     !- Use Weather File Rain Indicators
    Yes;                     !- Use Weather File Snow Indicators


!-   ===========  ALL OBJECTS IN CLASS: SITE:WATERMAINSTEMPERATURE ===========

Site:WaterMainsTemperature,
    CorrelationFromWeatherFile;  !- Calculation Method


!-   ===========  ALL OBJECTS IN CLASS: SCHEDULETYPELIMITS ===========

ScheduleTypeLimits,
    Fractional,              !- Name
    0,                       !- Lower Limit Value
    1,                       !- Upper Limit Value
    Continuous,              !- Numeric Type
    dimensionless;           !- Unit Type

ScheduleTypeLimits,
    Activity Level,          !- Name
    0,                       !- Lower Limit Value
    ,                        !- Upper Limit Value
    Continuous,              !- Numeric Type
    activitylevel;           !- Unit Type

ScheduleTypeLimits,
    Flr1_Jttestensgatan_3_19_Floor2_Room1 Thermostat Schedule Type Limits,  !- Name
    0,                       !- Lower Limit Value
    4,                       !- Upper Limit Value
    DISCRETE;                !- Numeric Type

ScheduleTypeLimits,
    Temperature,             !- Name
    -273.15,                 !- Lower Limit Value
    ,                        !- Upper Limit Value
    Continuous,              !- Numeric Type
    temperature;             !- Unit Type

ScheduleTypeLimits,
    Jttestensgatan_3_19_Floor1_Room1 Thermostat Schedule Type Limits,  !- Name
    0,                       !- Lower Limit Value
    4,                       !- Upper Limit Value
    DISCRETE;                !- Numeric Type

ScheduleTypeLimits,
    Jttestensgatan_3_19_Floor2_Room1 Thermostat Schedule Type Limits,  !- Name
    0,                       !- Lower Limit Value
    4,                       !- Upper Limit Value
    DISCRETE;                !- Numeric Type

ScheduleTypeLimits,
    Jttestensgatan_3_19_Floor4_Room1 Thermostat Schedule Type Limits,  !- Name
    0,                       !- Lower Limit Value
    4,                       !- Upper Limit Value
    DISCRETE;                !- Numeric Type

ScheduleTypeLimits,
    OnOff,                   !- Name
    0,                       !- Lower Limit Value
    1,                       !- Upper Limit Value
    Discrete,                !- Numeric Type
    availability;            !- Unit Type

ScheduleTypeLimits,
    Temperature 1,           !- Name
    ,                        !- Lower Limit Value
    ,                        !- Upper Limit Value
    Continuous,              !- Numeric Type
    temperature;             !- Unit Type


!-   ===========  ALL OBJECTS IN CLASS: SCHEDULE:DAY:INTERVAL ===========

Schedule:Day:Interval,
    residential: Laundry rooms & corridors_Lighting Schedule_Sunday,  !- Name
    Fractional,              !- Schedule Type Limits Name
    No,                      !- Interpolate to Timestep
    04:00,                   !- Time 1 {hh:mm}
    0.17092,                 !- Value Until Time 1
    05:00,                   !- Time 2 {hh:mm}
    0.26212,                 !- Value Until Time 2
    06:00,                   !- Time 3 {hh:mm}
    0.41944,                 !- Value Until Time 3
    07:00,                   !- Time 4 {hh:mm}
    0.4544,                  !- Value Until Time 4
    08:00,                   !- Time 5 {hh:mm}
    0.41868,                 !- Value Until Time 5
    09:00,                   !- Time 6 {hh:mm}
    0.37072,                 !- Value Until Time 6
    15:00,                   !- Time 7 {hh:mm}
    0.33044,                 !- Value Until Time 7
    16:00,                   !- Time 8 {hh:mm}
    0.39656,                 !- Value Until Time 8
    17:00,                   !- Time 9 {hh:mm}
    0.57364,                 !- Value Until Time 9
    18:00,                   !- Time 10 {hh:mm}
    0.58816,                 !- Value Until Time 10
    19:00,                   !- Time 11 {hh:mm}
    0.75004,                 !- Value Until Time 11
    20:00,                   !- Time 12 {hh:mm}
    0.86936,                 !- Value Until Time 12
    21:00,                   !- Time 13 {hh:mm}
    0.88,                    !- Value Until Time 13
    22:00,                   !- Time 14 {hh:mm}
    0.64592,                 !- Value Until Time 14
    23:00,                   !- Time 15 {hh:mm}
    0.41184,                 !- Value Until Time 15
    24:00,                   !- Time 16 {hh:mm}
    0.2416;                  !- Value Until Time 16

Schedule:Day:Interval,
    residential: Laundry rooms & corridors_Lighting Schedule_SmrDsn 1,  !- Name
    Fractional,              !- Schedule Type Limits Name
    No,                      !- Interpolate to Timestep
    04:00,                   !- Time 1 {hh:mm}
    0.17092,                 !- Value Until Time 1
    05:00,                   !- Time 2 {hh:mm}
    0.26212,                 !- Value Until Time 2
    06:00,                   !- Time 3 {hh:mm}
    0.41944,                 !- Value Until Time 3
    07:00,                   !- Time 4 {hh:mm}
    0.4544,                  !- Value Until Time 4
    08:00,                   !- Time 5 {hh:mm}
    0.41868,                 !- Value Until Time 5
    09:00,                   !- Time 6 {hh:mm}
    0.37072,                 !- Value Until Time 6
    15:00,                   !- Time 7 {hh:mm}
    0.33044,                 !- Value Until Time 7
    16:00,                   !- Time 8 {hh:mm}
    0.39656,                 !- Value Until Time 8
    17:00,                   !- Time 9 {hh:mm}
    0.57364,                 !- Value Until Time 9
    18:00,                   !- Time 10 {hh:mm}
    0.58816,                 !- Value Until Time 10
    19:00,                   !- Time 11 {hh:mm}
    0.75004,                 !- Value Until Time 11
    20:00,                   !- Time 12 {hh:mm}
    0.86936,                 !- Value Until Time 12
    21:00,                   !- Time 13 {hh:mm}
    0.88,                    !- Value Until Time 13
    22:00,                   !- Time 14 {hh:mm}
    0.64592,                 !- Value Until Time 14
    23:00,                   !- Time 15 {hh:mm}
    0.41184,                 !- Value Until Time 15
    24:00,                   !- Time 16 {hh:mm}
    0.2416;                  !- Value Until Time 16

Schedule:Day:Interval,
    residential: Laundry rooms & corridors_Lighting Schedule_WntrDsn 1,  !- Name
    Fractional,              !- Schedule Type Limits Name
    No,                      !- Interpolate to Timestep
    04:00,                   !- Time 1 {hh:mm}
    0.17092,                 !- Value Until Time 1
    05:00,                   !- Time 2 {hh:mm}
    0.26212,                 !- Value Until Time 2
    06:00,                   !- Time 3 {hh:mm}
    0.41944,                 !- Value Until Time 3
    07:00,                   !- Time 4 {hh:mm}
    0.4544,                  !- Value Until Time 4
    08:00,                   !- Time 5 {hh:mm}
    0.41868,                 !- Value Until Time 5
    09:00,                   !- Time 6 {hh:mm}
    0.37072,                 !- Value Until Time 6
    15:00,                   !- Time 7 {hh:mm}
    0.33044,                 !- Value Until Time 7
    16:00,                   !- Time 8 {hh:mm}
    0.39656,                 !- Value Until Time 8
    17:00,                   !- Time 9 {hh:mm}
    0.57364,                 !- Value Until Time 9
    18:00,                   !- Time 10 {hh:mm}
    0.58816,                 !- Value Until Time 10
    19:00,                   !- Time 11 {hh:mm}
    0.75004,                 !- Value Until Time 11
    20:00,                   !- Time 12 {hh:mm}
    0.86936,                 !- Value Until Time 12
    21:00,                   !- Time 13 {hh:mm}
    0.88,                    !- Value Until Time 13
    22:00,                   !- Time 14 {hh:mm}
    0.64592,                 !- Value Until Time 14
    23:00,                   !- Time 15 {hh:mm}
    0.41184,                 !- Value Until Time 15
    24:00,                   !- Time 16 {hh:mm}
    0.2416;                  !- Value Until Time 16

Schedule:Day:Interval,
    residential: Laundry rooms & corridors_Lighting Schedule_Hol 1,  !- Name
    Fractional,              !- Schedule Type Limits Name
    No,                      !- Interpolate to Timestep
    04:00,                   !- Time 1 {hh:mm}
    0.17092,                 !- Value Until Time 1
    05:00,                   !- Time 2 {hh:mm}
    0.26212,                 !- Value Until Time 2
    06:00,                   !- Time 3 {hh:mm}
    0.41944,                 !- Value Until Time 3
    07:00,                   !- Time 4 {hh:mm}
    0.4544,                  !- Value Until Time 4
    08:00,                   !- Time 5 {hh:mm}
    0.41868,                 !- Value Until Time 5
    09:00,                   !- Time 6 {hh:mm}
    0.37072,                 !- Value Until Time 6
    15:00,                   !- Time 7 {hh:mm}
    0.33044,                 !- Value Until Time 7
    16:00,                   !- Time 8 {hh:mm}
    0.39656,                 !- Value Until Time 8
    17:00,                   !- Time 9 {hh:mm}
    0.57364,                 !- Value Until Time 9
    18:00,                   !- Time 10 {hh:mm}
    0.58816,                 !- Value Until Time 10
    19:00,                   !- Time 11 {hh:mm}
    0.75004,                 !- Value Until Time 11
    20:00,                   !- Time 12 {hh:mm}
    0.86936,                 !- Value Until Time 12
    21:00,                   !- Time 13 {hh:mm}
    0.88,                    !- Value Until Time 13
    22:00,                   !- Time 14 {hh:mm}
    0.64592,                 !- Value Until Time 14
    23:00,                   !- Time 15 {hh:mm}
    0.41184,                 !- Value Until Time 15
    24:00,                   !- Time 16 {hh:mm}
    0.2416;                  !- Value Until Time 16

Schedule:Day:Interval,
    residential: Laundry rooms & corridors_People_Occ Schedule_Sunday,  !- Name
    Fractional,              !- Schedule Type Limits Name
    No,                      !- Interpolate to Timestep
    07:00,                   !- Time 1 {hh:mm}
    0.863636363636364,       !- Value Until Time 1
    08:00,                   !- Time 2 {hh:mm}
    0.734090909090909,       !- Value Until Time 2
    09:00,                   !- Time 3 {hh:mm}
    0.349090909090909,       !- Value Until Time 3
    10:00,                   !- Time 4 {hh:mm}
    0.228181818181818,       !- Value Until Time 4
    12:00,                   !- Time 5 {hh:mm}
    0.240454545454545,       !- Value Until Time 5
    13:00,                   !- Time 6 {hh:mm}
    0.215909090909091,       !- Value Until Time 6
    16:00,                   !- Time 7 {hh:mm}
    0.240454545454545,       !- Value Until Time 7
    17:00,                   !- Time 8 {hh:mm}
    0.271363636363636,       !- Value Until Time 8
    18:00,                   !- Time 9 {hh:mm}
    0.449090909090909,       !- Value Until Time 9
    21:00,                   !- Time 10 {hh:mm}
    0.751363636363636,       !- Value Until Time 10
    24:00,                   !- Time 11 {hh:mm}
    0.863636363636364;       !- Value Until Time 11

Schedule:Day:Interval,
    residential: Laundry rooms & corridors_People_Occ Schedule_SmrDsn 1,  !- Name
    Fractional,              !- Schedule Type Limits Name
    No,                      !- Interpolate to Timestep
    07:00,                   !- Time 1 {hh:mm}
    1,                       !- Value Until Time 1
    08:00,                   !- Time 2 {hh:mm}
    0.870454545454545,       !- Value Until Time 2
    09:00,                   !- Time 3 {hh:mm}
    0.473181818181818,       !- Value Until Time 3
    16:00,                   !- Time 4 {hh:mm}
    0.352272727272727,       !- Value Until Time 4
    17:00,                   !- Time 5 {hh:mm}
    0.395454545454545,       !- Value Until Time 5
    18:00,                   !- Time 6 {hh:mm}
    0.585454545454545,       !- Value Until Time 6
    21:00,                   !- Time 7 {hh:mm}
    0.887727272727273,       !- Value Until Time 7
    24:00,                   !- Time 8 {hh:mm}
    1;                       !- Value Until Time 8

Schedule:Day:Interval,
    residential: Laundry rooms & corridors_People_Occ Schedule_WntrDsn 1,  !- Name
    Fractional,              !- Schedule Type Limits Name
    No,                      !- Interpolate to Timestep
    07:00,                   !- Time 1 {hh:mm}
    0.863636363636364,       !- Value Until Time 1
    08:00,                   !- Time 2 {hh:mm}
    0.734090909090909,       !- Value Until Time 2
    09:00,                   !- Time 3 {hh:mm}
    0.336818181818182,       !- Value Until Time 3
    16:00,                   !- Time 4 {hh:mm}
    0.215909090909091,       !- Value Until Time 4
    17:00,                   !- Time 5 {hh:mm}
    0.259090909090909,       !- Value Until Time 5
    18:00,                   !- Time 6 {hh:mm}
    0.449090909090909,       !- Value Until Time 6
    21:00,                   !- Time 7 {hh:mm}
    0.751363636363636,       !- Value Until Time 7
    24:00,                   !- Time 8 {hh:mm}
    0.863636363636364;       !- Value Until Time 8

Schedule:Day:Interval,
    residential: Laundry rooms & corridors_People_Occ Schedule_Hol 1,  !- Name
    Fractional,              !- Schedule Type Limits Name
    No,                      !- Interpolate to Timestep
    07:00,                   !- Time 1 {hh:mm}
    0.863636363636364,       !- Value Until Time 1
    08:00,                   !- Time 2 {hh:mm}
    0.734090909090909,       !- Value Until Time 2
    09:00,                   !- Time 3 {hh:mm}
    0.349090909090909,       !- Value Until Time 3
    10:00,                   !- Time 4 {hh:mm}
    0.228181818181818,       !- Value Until Time 4
    12:00,                   !- Time 5 {hh:mm}
    0.240454545454545,       !- Value Until Time 5
    13:00,                   !- Time 6 {hh:mm}
    0.215909090909091,       !- Value Until Time 6
    16:00,                   !- Time 7 {hh:mm}
    0.240454545454545,       !- Value Until Time 7
    17:00,                   !- Time 8 {hh:mm}
    0.271363636363636,       !- Value Until Time 8
    18:00,                   !- Time 9 {hh:mm}
    0.449090909090909,       !- Value Until Time 9
    21:00,                   !- Time 10 {hh:mm}
    0.751363636363636,       !- Value Until Time 10
    24:00,                   !- Time 11 {hh:mm}
    0.863636363636364;       !- Value Until Time 11

Schedule:Day:Interval,
    residential: Laundry rooms & corridors_People_Act Schedule_Sunday,  !- Name
    Activity Level,          !- Schedule Type Limits Name
    No,                      !- Interpolate to Timestep
    24:00,                   !- Time 1 {hh:mm}
    120;                     !- Value Until Time 1

Schedule:Day:Interval,
    residential: Laundry rooms & corridors_People_Act Schedule_SmrDsn 1,  !- Name
    Activity Level,          !- Schedule Type Limits Name
    No,                      !- Interpolate to Timestep
    24:00,                   !- Time 1 {hh:mm}
    120;                     !- Value Until Time 1

Schedule:Day:Interval,
    residential: Laundry rooms & corridors_People_Act Schedule_WntrDsn 1,  !- Name
    Activity Level,          !- Schedule Type Limits Name
    No,                      !- Interpolate to Timestep
    24:00,                   !- Time 1 {hh:mm}
    120;                     !- Value Until Time 1

Schedule:Day:Interval,
    residential: Laundry rooms & corridors_People_Act Schedule_Hol 1,  !- Name
    Activity Level,          !- Schedule Type Limits Name
    No,                      !- Interpolate to Timestep
    24:00,                   !- Time 1 {hh:mm}
    120;                     !- Value Until Time 1

Schedule:Day:Interval,
    residential: Laundry rooms & corridors_Gas Equipment Schedule_Sunday,  !- Name
    Fractional,              !- Schedule Type Limits Name
    No,                      !- Interpolate to Timestep
    09:00,                   !- Time 1 {hh:mm}
    0,                       !- Value Until Time 1
    17:00,                   !- Time 2 {hh:mm}
    1,                       !- Value Until Time 2
    24:00,                   !- Time 3 {hh:mm}
    0;                       !- Value Until Time 3

Schedule:Day:Interval,
    residential: Laundry rooms & corridors_Gas Equipment Schedule_SmrDsn 1,  !- Name
    Fractional,              !- Schedule Type Limits Name
    No,                      !- Interpolate to Timestep
    24:00,                   !- Time 1 {hh:mm}
    1;                       !- Value Until Time 1

Schedule:Day:Interval,
    residential: Laundry rooms & corridors_Gas Equipment Schedule_WntrDsn 1,  !- Name
    Fractional,              !- Schedule Type Limits Name
    No,                      !- Interpolate to Timestep
    24:00,                   !- Time 1 {hh:mm}
    0;                       !- Value Until Time 1

Schedule:Day:Interval,
    residential: Laundry rooms & corridors_Gas Equipment Schedule_Hol 1,  !- Name
    Fractional,              !- Schedule Type Limits Name
    No,                      !- Interpolate to Timestep
    09:00,                   !- Time 1 {hh:mm}
    0,                       !- Value Until Time 1
    17:00,                   !- Time 2 {hh:mm}
    1,                       !- Value Until Time 2
    24:00,                   !- Time 3 {hh:mm}
    0;                       !- Value Until Time 3

Schedule:Day:Interval,
    ProgramType_a16db5c6_4a3befe6_Setpoint_HtgSetp_Day Schedule,  !- Name
    Temperature,             !- Schedule Type Limits Name
    No,                      !- Interpolate to Timestep
    24:00,                   !- Time 1 {hh:mm}
    21;                      !- Value Until Time 1

Schedule:Day:Interval,
    ProgramType_a16db5c6_4a3befe6_Setpoint_ClgSetp_Day Schedule,  !- Name
    Temperature,             !- Schedule Type Limits Name
    No,                      !- Interpolate to Timestep
    24:00,                   !- Time 1 {hh:mm}
    100;                     !- Value Until Time 1

Schedule:Day:Interval,
    Always On_Day Schedule,  !- Name
    Fractional,              !- Schedule Type Limits Name
    No,                      !- Interpolate to Timestep
    24:00,                   !- Time 1 {hh:mm}
    1;                       !- Value Until Time 1

Schedule:Day:Interval,
    residential: Laundry rooms & corridors_Gas Equipment Schedule_Hol,  !- Name
    Fractional,              !- Schedule Type Limits Name
    No,                      !- Interpolate to Timestep
    09:00,                   !- Time 1 {hh:mm}
    0,                       !- Value Until Time 1
    17:00,                   !- Time 2 {hh:mm}
    1,                       !- Value Until Time 2
    24:00,                   !- Time 3 {hh:mm}
    0;                       !- Value Until Time 3

Schedule:Day:Interval,
    residential: Laundry rooms & corridors_Gas Equipment Schedule_SmrDsn,  !- Name
    Fractional,              !- Schedule Type Limits Name
    No,                      !- Interpolate to Timestep
    24:00,                   !- Time 1 {hh:mm}
    1;                       !- Value Until Time 1

Schedule:Day:Interval,
    residential: Laundry rooms & corridors_Gas Equipment Schedule_WntrDsn,  !- Name
    Fractional,              !- Schedule Type Limits Name
    No,                      !- Interpolate to Timestep
    24:00,                   !- Time 1 {hh:mm}
    0;                       !- Value Until Time 1

Schedule:Day:Interval,
    residential: Laundry rooms & corridors_Lighting Schedule_Hol,  !- Name
    Fractional,              !- Schedule Type Limits Name
    No,                      !- Interpolate to Timestep
    04:00,                   !- Time 1 {hh:mm}
    0.17092,                 !- Value Until Time 1
    05:00,                   !- Time 2 {hh:mm}
    0.26212,                 !- Value Until Time 2
    06:00,                   !- Time 3 {hh:mm}
    0.41944,                 !- Value Until Time 3
    07:00,                   !- Time 4 {hh:mm}
    0.4544,                  !- Value Until Time 4
    08:00,                   !- Time 5 {hh:mm}
    0.41868,                 !- Value Until Time 5
    09:00,                   !- Time 6 {hh:mm}
    0.37072,                 !- Value Until Time 6
    15:00,                   !- Time 7 {hh:mm}
    0.33044,                 !- Value Until Time 7
    16:00,                   !- Time 8 {hh:mm}
    0.39656,                 !- Value Until Time 8
    17:00,                   !- Time 9 {hh:mm}
    0.57364,                 !- Value Until Time 9
    18:00,                   !- Time 10 {hh:mm}
    0.58816,                 !- Value Until Time 10
    19:00,                   !- Time 11 {hh:mm}
    0.75004,                 !- Value Until Time 11
    20:00,                   !- Time 12 {hh:mm}
    0.86936,                 !- Value Until Time 12
    21:00,                   !- Time 13 {hh:mm}
    0.88,                    !- Value Until Time 13
    22:00,                   !- Time 14 {hh:mm}
    0.64592,                 !- Value Until Time 14
    23:00,                   !- Time 15 {hh:mm}
    0.41184,                 !- Value Until Time 15
    24:00,                   !- Time 16 {hh:mm}
    0.2416;                  !- Value Until Time 16

Schedule:Day:Interval,
    residential: Laundry rooms & corridors_Lighting Schedule_SmrDsn,  !- Name
    Fractional,              !- Schedule Type Limits Name
    No,                      !- Interpolate to Timestep
    04:00,                   !- Time 1 {hh:mm}
    0.17092,                 !- Value Until Time 1
    05:00,                   !- Time 2 {hh:mm}
    0.26212,                 !- Value Until Time 2
    06:00,                   !- Time 3 {hh:mm}
    0.41944,                 !- Value Until Time 3
    07:00,                   !- Time 4 {hh:mm}
    0.4544,                  !- Value Until Time 4
    08:00,                   !- Time 5 {hh:mm}
    0.41868,                 !- Value Until Time 5
    09:00,                   !- Time 6 {hh:mm}
    0.37072,                 !- Value Until Time 6